/*--------------------------------*- C++ -*----------------------------------*\
| =========                 |                                                 |
| \\      /  F ield         | foam-extend: Open Source CFD                    |
|  \\    /   O peration     | Version:     3.2                                |
|   \\  /    A nd           | Web:         http://www.foam-extend.org         |
|    \\/     M anipulation  | For copyright notice see file Copyright         |
\*---------------------------------------------------------------------------*/
FoamFile
{
    version     2.0;
    format      ascii;
    class       dictionary;
    location    "constant";
    object      solidProperties;
}
// * * * * * * * * * * * * * * * * * * * * * * * * * * * * * * * * * * * * * //

// linearGeometry: assumes small strains and rotations
solidModel     linearGeometryTotalDisplacementML;
//solidModel     unsLinearGeometry;

"linearGeometryTotalDisplacementMLCoeffs|linearGeometryTotalDisplacementMLCoeffs|unsLinearGeometryCoeffs"
{
    // Write  residual file
    residualFile yes;

    // Predict displacement
    machineLearning yes;

    // Write time for each iteration
    iterationTimeFile yes;

    // Predict displacement in the z-direction
    predictZ no;    

    jsonFiles
    (
        "../../machine_learning/ML_model/fdeep_model_1.json"
        "../../machine_learning/ML_model/fdeep_model_2.json"
        "../../machine_learning/ML_model/fdeep_model_3.json"
        "../../machine_learning/ML_model/fdeep_model_4.json"
    ) ;
    
	iterationToApplyMachineLearningPredictor 20; 

    kerasScalingMeans
    (
		(-2.1987995592328966e-07		-3.5001151296422417e-07		-1.9607416451772536e-05)
		(-2.259992878110629e-07		-3.600555732226689e-07		-2.094013072463075e-05)
		(-2.3101268288552638e-07		-3.692992000658001e-07		-2.2205592220917104e-05)
		(-2.3515020742007405e-07		-3.777062421807735e-07		-2.340997563446252e-05)
		(-2.384096617037889e-07		-3.8549800873906995e-07		-2.4558203623980864e-05)
		(-2.410987864152275e-07		-3.924575977127535e-07		-2.565569738427795e-05)
		(-2.429929347230788e-07		-3.9904919442105394e-07		-2.670880119301953e-05)
		(-2.4454286538854625e-07		-4.0468994344390727e-07		-2.771814318519577e-05)
		(-2.4561238294040536e-07		-4.0988810363278615e-07		-2.8687209089894e-05)
		(-2.463435776343334e-07		-4.145672016301878e-07		-2.9619052214337877e-05)
		(-2.46755691786359e-07		-4.188283053616864e-07		-3.0516258223555688e-05)
		(-2.4691398410307626e-07		-4.226763044102833e-07		-3.138121000432852e-05)
		(-2.468496743115277e-07		-4.2615893030537034e-07		-3.221602519208932e-05)
		(-2.466018522888936e-07		-4.292998359533173e-07		-3.3022645230854934e-05)
		(-2.461979965228566e-07		-4.32131234624439e-07		-3.380282656178615e-05)
		(-2.456651055078027e-07		-4.346775334131253e-07		-3.455817691007547e-05)
		(-2.450250594109448e-07		-4.369635403549243e-07		-3.529016339371363e-05)
		(-2.4429759079655574e-07		-4.390105402344222e-07		-3.6003557969735764e-05)
		(-2.43188602083294e-07		-4.408288499799852e-07		-3.669528031316695e-05)
		(-2.420166446621455e-07		-4.424469478417129e-07		-3.7366986959140406e-05)
		(-2.0385566098869662e-07		-4.150439900982464e-07		-7.369737711836295e-05)
		(-2.1875486959895137e-07		-4.504940939882644e-07		-5.127240822635871e-05)
		(-2.1833415149357843e-07		-4.5018253700910096e-07		-5.162087760740673e-05)
		(-2.1793068078623247e-07		-4.498599357884258e-07		-5.1963136281212244e-05)
		(-2.175436847328246e-07		-4.495276266235722e-07		-5.229933956988458e-05)
		(-2.1717241420514127e-07		-4.491868353097259e-07		-5.2629636318872546e-05)
		(-2.1681614524708194e-07		-4.488386863057788e-07		-5.2954169301719326e-05)
		(-2.1647418018625304e-07		-4.4848421109339267e-07		-5.327307559335847e-05)
		(-2.1614584837818376e-07		-4.481243558145555e-07		-5.3586486914851434e-05)
		(-2.1583050663865377e-07		-4.477599882459921e-07		-5.389452995216819e-05)
		(-2.1552753943714872e-07		-4.473919041948027e-07		-5.419732665123299e-05)
		(-2.1523635890264242e-07		-4.4702083334564873e-07		-5.449499449152345e-05)
		(-2.1495640468851578e-07		-4.4664744463946243e-07		-5.478764673991529e-05)
		(-2.1468714374756207e-07		-4.4627235123095353e-07		-5.507539268669581e-05)
		(-2.144280700894614e-07		-4.4589611506235627e-07		-5.535833786544714e-05)
		(-2.1417870454008365e-07		-4.455192511130327e-07		-5.563658425807998e-05)
		(-2.139385946110183e-07		-4.451422313735536e-07		-5.591023048694922e-05)
		(-2.137073145345891e-07		-4.447654885975891e-07		-5.617937199530733e-05)
		(-2.1348446560153837e-07		-4.4438941990154723e-07		-5.644410121788607e-05)
		(-2.1326967694203208e-07		-4.4401439027759796e-07		-5.670450774352238e-05)
		(-2.1306260698644505e-07		-4.4364073614009924e-07		-5.696067847195356e-05)
		(-2.0385566098869662e-07		-4.150439900982464e-07		-7.369737711836295e-05)
		(-2.053829117615908e-07		-4.2077129522952207e-07		-7.044857952634091e-05)
		(-2.0536051838846938e-07		-4.2068809877690553e-07		-7.049565810132964e-05)
		(-2.0533846104145486e-07		-4.2060611976479426e-07		-7.054205073710687e-05)
		(-2.0531673437559823e-07		-4.2052534015163574e-07		-7.05877675509847e-05)
		(-2.0529533314576892e-07		-4.204457421713433e-07		-7.063281850689411e-05)
		(-2.052742521981667e-07		-4.203673083202313e-07		-7.067721341789531e-05)
		(-2.0525348647430196e-07		-4.202900213545073e-07		-7.072096194855792e-05)
		(-2.052330310064091e-07		-4.20213864294448e-07		-7.07640736173173e-05)
		(-2.0521288091372217e-07		-4.20138820414178e-07		-7.080655779886152e-05)
		(-2.0519303140360954e-07		-4.200648732352588e-07		-7.084842372642207e-05)
		(-2.051734777661264e-07		-4.1999200653101556e-07		-7.088968049400767e-05)
		(-2.0515421537931347e-07		-4.1992020431560746e-07		-7.093033705860222e-05)
		(-2.0513523969563905e-07		-4.1984945084695805e-07		-7.097040224238725e-05)
		(-2.0511654625178106e-07		-4.19779730615338e-07		-7.100988473484506e-05)
		(-2.0509813066133256e-07		-4.197110283487882e-07		-7.104879309488346e-05)
		(-2.050799886102486e-07		-4.1964332900211353e-07		-7.108713575283994e-05)
		(-2.0506211586224397e-07		-4.195766177590503e-07		-7.112492101258036e-05)
		(-2.0504450825223647e-07		-4.195108800210566e-07		-7.116215705344383e-05)
		(-2.0502716168728854e-07		-4.194461014168852e-07		-7.119885193222282e-05)
		(-2.0501007214254808e-07		-4.1938226778592974e-07		-7.123501358507065e-05)
		(-2.0385566098869662e-07		-4.150439900982464e-07		-7.369737711836295e-05)
		(-2.0401437824609982e-07		-4.1564282353698014e-07		-7.335699079523222e-05)
		(-2.0401208621395127e-07		-4.1563417964154936e-07		-7.336190334902632e-05)
		(-2.0400982731053559e-07		-4.1562566057673235e-07		-7.336674498557208e-05)
		(-2.0400760105894676e-07		-4.156172645379781e-07		-7.33715167293858e-05)
		(-2.0400540698609924e-07		-4.156089897445829e-07		-7.337621959012935e-05)
		(-2.0400324462318733e-07		-4.1560083444527754e-07		-7.338085456282776e-05)
		(-2.0400111351355416e-07		-4.155927969107693e-07		-7.338542262815708e-05)
		(-2.0399901320395777e-07		-4.155848754422398e-07		-7.338992475260058e-05)
		(-2.0399694324685193e-07		-4.155770683588973e-07		-7.339436188863882e-05)
		(-2.0399490320596852e-07		-4.1556937400722944e-07		-7.339873497500282e-05)
		(-2.0399289264346253e-07		-4.155617907577641e-07		-7.340304493678615e-05)
		(-2.0399091113571033e-07		-4.1555431700713533e-07		-7.340729268578007e-05)
		(-2.0398895826176724e-07		-4.155469511698954e-07		-7.341147912054191e-05)
		(-2.0398703360673452e-07		-4.1553969168770305e-07		-7.34156051266262e-05)
		(-2.0398513676178983e-07		-4.155325370224706e-07		-7.341967157680836e-05)
		(-2.0398326732298634e-07		-4.1552548566010786e-07		-7.342367933122839e-05)
		(-2.039814248974199e-07		-4.155185361069081e-07		-7.342762923758916e-05)
		(-2.0397960909100182e-07		-4.1551168689325815e-07		-7.343152213133369e-05)
		(-2.0397781951851938e-07		-4.155049365677149e-07		-7.343535883581609e-05)
		(-2.0397605580148567e-07		-4.154982837010087e-07		-7.343914016251988e-05)
		(-2.0385566098869662e-07		-4.150439900982464e-07		-7.369737711836295e-05)
    );

    kerasScalingStds
    (
		(1.293882563163699e-06		1.1209959379664863e-06		8.556867712678002e-06)
		(1.4502968563154517e-06		1.2512722925800315e-06		9.242761067150958e-06)
		(1.6036715262779088e-06		1.379664356295702e-06		9.911083329566399e-06)
		(1.754098504937427e-06		1.5064199913583583e-06		1.056153689307039e-05)
		(1.901485740288668e-06		1.631687028389162e-06		1.1194866401055253e-05)
		(2.0458545691348472e-06		1.755510660357935e-06		1.1811751732145158e-05)
		(2.1871746363536603e-06		1.8779385633992995e-06		1.2413028278729047e-05)
		(2.3257260292719225e-06		1.999031511108844e-06		1.2999811791679524e-05)
		(2.4614762878150677e-06		2.1187707883061104e-06		1.3572784956856386e-05)
		(2.594485038666365e-06		2.237141367035313e-06		1.4132535817380053e-05)
		(2.7248077962502047e-06		2.354163487562844e-06		1.4679665928931432e-05)
		(2.8525169420312996e-06		2.4698498176599816e-06		1.5214687575852925e-05)
		(2.977681060895442e-06		2.584215994146344e-06		1.5738100452404594e-05)
		(3.1003699975339894e-06		2.6972741702172242e-06		1.6250353693805362e-05)
		(3.2206507926759176e-06		2.8090361390190888e-06		1.675187477697403e-05)
		(3.3385888683117293e-06		2.919512175958807e-06		1.724305961184298e-05)
		(3.454247316176327e-06		3.028711893191259e-06		1.772428222747228e-05)
		(3.5676872535246717e-06		3.1366441054066986e-06		1.819590435161465e-05)
		(3.6794082835965233e-06		3.2433172112861195e-06		1.8658171168742127e-05)
		(3.7891838517052426e-06		3.3487056998859497e-06		1.91114064074796e-05)
		(1.0444147998426413e-05		1.0916778315149296e-05		4.7915390112349615e-05)
		(6.244063942629198e-06		5.897510901582407e-06		2.9290975091329972e-05)
		(6.3084252030970315e-06		5.969226678101808e-06		2.956281239673399e-05)
		(6.3717080499053344e-06		6.0399627648055154e-06		2.9830469710246617e-05)
		(6.433934263578645e-06		6.1097296759586595e-06		3.009402538322758e-05)
		(6.49512505370376e-06		6.178537985318338e-06		3.0353555431272853e-05)
		(6.555301076458735e-06		6.246398314846133e-06		3.060913364857983e-05)
		(6.614482451802292e-06		6.313321323868006e-06		3.0860831715070614e-05)
		(6.6726887803204055e-06		6.3793176987496535e-06		3.110871929679922e-05)
		(6.729939159672424e-06		6.444398143024976e-06		3.135286414024665e-05)
		(6.786252200646138e-06		6.5085733680483366e-06		3.159333216064548e-05)
		(6.841646042789217e-06		6.571854084126882e-06		3.183018752516876e-05)
		(6.89613836965169e-06		6.63425099216071e-06		3.206349273090527e-05)
		(6.9497464236087305e-06		6.695774775744658e-06		3.229330867827034e-05)
		(7.002487020323478e-06		6.756436093765979e-06		3.2519694740258654e-05)
		(7.05437656286875e-06		6.816245573442722e-06		3.274270882736009e-05)
		(7.105431055540765e-06		6.875213803810557e-06		3.296240744910402e-05)
		(7.155666117466771e-06		6.9333513296439715e-06		3.317884577201097e-05)
		(7.205096996074325e-06		6.990668645782323e-06		3.339207767445438e-05)
		(7.253738580608206e-06		7.047176191859821e-06		3.360215579880218e-05)
		(7.301605415879861e-06		7.102884347398972e-06		3.3809131600992264e-05)
		(1.0444147998426413e-05		1.0916778315149296e-05		4.7915390112349615e-05)
		(9.832943014715959e-06		1.0157529199475829e-05		4.509862175186369e-05)
		(9.841796229729078e-06		1.0168487363532372e-05		4.513921827332975e-05)
		(9.85052054193312e-06		1.0179287272630599e-05		4.5179230249847436e-05)
		(9.859117850581975e-06		1.01899312153576e-05		4.521866608496535e-05)
		(9.867590026172994e-06		1.0200421447119127e-05		4.52575340616481e-05)
		(9.875938910927623e-06		1.0210760190628762e-05		4.529584234409462e-05)
		(9.884166319219216e-06		1.0220949636383556e-05		4.533359897932024e-05)
		(9.892274038046928e-06		1.0230991943125177e-05		4.5370811898867616e-05)
		(9.900263827447804e-06		1.0240889238306413e-05		4.540748892049987e-05)
		(9.908137420946344e-06		1.0250643618547608e-05		4.5443637749825374e-05)
		(9.915896525956715e-06		1.0260257150078692e-05		4.547926598190463e-05)
		(9.923542824218819e-06		1.026973186918312e-05		4.5514381102762986e-05)
		(9.931077972187087e-06		1.027906978264146e-05		4.5548990491082225e-05)
		(9.938503601440841e-06		1.0288272868142392e-05		4.5583101419649724e-05)
		(9.945821319069688e-06		1.0297343074724897e-05		4.5616721056925775e-05)
		(9.953032708070418e-06		1.0306282323181015e-05		4.564985646844063e-05)
		(9.960139327708922e-06		1.031509250647433e-05		4.568251461841332e-05)
		(9.967142713915243e-06		1.0323775490143353e-05		4.5714702371098094e-05)
		(9.974044379627251e-06		1.033233311269119e-05		4.5746426492238206e-05)
		(9.980845815166544e-06		1.0340767186000552e-05		4.5777693650530283e-05)
		(1.0444147998426413e-05		1.0916778315149296e-05		4.7915390112349615e-05)
		(1.0380078405568868e-05		1.0836974369199189e-05		4.7618985355223295e-05)
		(1.038100299845692e-05		1.083812578452089e-05		4.7623261503219206e-05)
		(1.0381914245927939e-05		1.083926058820656e-05		4.7627475971548575e-05)
		(1.038281234072305e-05		1.0840379019925184e-05		4.763162964972602e-05)
		(1.0383697472791286e-05		1.0841481315883524e-05		4.763572341438851e-05)
		(1.0384569829345574e-05		1.0842567708874569e-05		4.763975812952284e-05)
		(1.0385429594880634e-05		1.0843638428340609e-05		4.7643734646708855e-05)
		(1.0386276951229011e-05		1.0844693700412885e-05		4.764765380524095e-05)
		(1.0387112077590546e-05		1.0845733747953525e-05		4.765151643228772e-05)
		(1.038793515057768e-05		1.0846758790612138e-05		4.765532334314652e-05)
		(1.0388746344248537e-05		1.0847769044870278e-05		4.765907534126206e-05)
		(1.0389545830141432e-05		1.0848764724085991e-05		4.7662773218614996e-05)
		(1.0390333777318781e-05		1.08497460385397e-05		4.766641775570979e-05)
		(1.0391110352395352e-05		1.0850713195470212e-05		4.7670009721785344e-05)
		(1.0391875719581107e-05		1.0851666399140233e-05		4.767354987501498e-05)
		(1.0392630040704156e-05		1.0852605850853227e-05		4.767703896265392e-05)
		(1.039337347527071e-05		1.0853531749009775e-05		4.768047772115301e-05)
		(1.0394106180458864e-05		1.085444428915315e-05		4.768386687636264e-05)
		(1.0394828311190739e-05		1.0855343664003361e-05		4.768720714366464e-05)
		(1.0395540020142267e-05		1.0856230063496026e-05		4.769049922815596e-05)
		(1.0444147998426413e-05		1.0916778315149296e-05		4.7915390112349615e-05)
    );


    // Maximum number of momentum correctors
    nCorrectors     100000;

    // Solution tolerance for displacement
    solutionTolerance 1e-10;

    // Alternative solution tolerance for displacement
    alternativeTolerance 1e-10;

    // Material law solution tolerance
    materialTolerance 1e-05;

    // Write frequency for the residuals
    infoFrequency   100;
}


// ************************************************************************* //
