/*--------------------------------*- C++ -*----------------------------------*\
| =========                 |                                                 |
| \\      /  F ield         | foam-extend: Open Source CFD                    |
|  \\    /   O peration     | Version:     3.2                                |
|   \\  /    A nd           | Web:         http://www.foam-extend.org         |
|    \\/     M anipulation  | For copyright notice see file Copyright         |
\*---------------------------------------------------------------------------*/
FoamFile
{
    version     2.0;
    format      ascii;
    class       dictionary;
    location    "constant";
    object      solidProperties;
}
// * * * * * * * * * * * * * * * * * * * * * * * * * * * * * * * * * * * * * //

// linearGeometry: assumes small strains and rotations
solidModel     linearGeometryTotalDisplacementML;
//solidModel     unsLinearGeometry;

"linearGeometryTotalDisplacementMLCoeffs|linearGeometryTotalDisplacementMLCoeffs|unsLinearGeometryCoeffs"
{
    // Write  residual file
    residualFile yes;

    // Predict displacement
    machineLearning no;

    // Write displacement field at each iteration
    writeDisplacementField yes;

    // Write time for each iteration
    iterationTimeFile yes;

    iterationToApplyMachineLearningPredictor 20;

    noPredictions 1;

	predictionResiduals
	(
		0.26
	);

    // Write D field up until this iteration
    writeDisplacementLimit 120;

    // Maximum number of momentum correctors
    nCorrectors     100000;

    // Solution tolerance for displacement
    solutionTolerance 1e-10;

    // Alternative solution tolerance for displacement
    alternativeTolerance 1e-10;

    // Material law solution tolerance
    materialTolerance 1e-05;

    // Write frequency for the residuals
    infoFrequency   100;
}


// ************************************************************************* //
