/*--------------------------------*- C++ -*----------------------------------*\
| =========                 |                                                 |
| \\      /  F ield         | foam-extend: Open Source CFD                    |
|  \\    /   O peration     | Version:     4.1                                |
|   \\  /    A nd           | Web:         http://www.foam-extend.org         |
|    \\/     M anipulation  |                                                 |
\*---------------------------------------------------------------------------*/
FoamFile
{
    version     2.0;
    format      ascii;
    class       polyBoundaryMesh;
    location    "constant/polyMesh";
    object      boundary;
}
// * * * * * * * * * * * * * * * * * * * * * * * * * * * * * * * * * * * * * //

6
(
    outside
    {
        type            patch;
        nFaces          10500;
        startFace       3117500;
    }
    symmx
    {
        type            patch;
        nFaces          7000;
        startFace       3128000;
    }
    symmy
    {
        type            patch;
        nFaces          7000;
        startFace       3135000;
    }
    inside
    {
        type            patch;
        nFaces          10500;
        startFace       3142000;
    }
    top
    {
        type            patch;
        nFaces          15000;
        startFace       3152500;
    }
    bottom
    {
        type            patch;
        nFaces          15000;
        startFace       3167500;
    }
)


// ************************************************************************* //
