/*--------------------------------*- C++ -*----------------------------------*\
| =========                 |                                                 |
| \\      /  F ield         | foam-extend: Open Source CFD                    |
|  \\    /   O peration     | Version:     4.1                                |
|   \\  /    A nd           | Web:         http://www.foam-extend.org         |
|    \\/     M anipulation  |                                                 |
\*---------------------------------------------------------------------------*/
FoamFile
{
    version     2.0;
    format      ascii;
    class       polyBoundaryMesh;
    location    "constant/polyMesh";
    object      boundary;
}
// * * * * * * * * * * * * * * * * * * * * * * * * * * * * * * * * * * * * * //

6
(
    outside
    {
        type            patch;
        nFaces          105;
        startFace       2825;
    }
    symmx
    {
        type            patch;
        nFaces          70;
        startFace       2930;
    }
    symmy
    {
        type            patch;
        nFaces          70;
        startFace       3000;
    }
    inside
    {
        type            patch;
        nFaces          105;
        startFace       3070;
    }
    top
    {
        type            patch;
        nFaces          150;
        startFace       3175;
    }
    bottom
    {
        type            patch;
        nFaces          150;
        startFace       3325;
    }
)


// ************************************************************************* //
