/*--------------------------------*- C++ -*----------------------------------*\
| =========                 |                                                 |
| \\      /  F ield         | foam-extend: Open Source CFD                    |
|  \\    /   O peration     | Version:     3.2                                |
|   \\  /    A nd           | Web:         http://www.foam-extend.org         |
|    \\/     M anipulation  | For copyright notice see file Copyright         |
\*---------------------------------------------------------------------------*/
FoamFile
{
    version     2.0;
    format      ascii;
    class       dictionary;
    location    "constant";
    object      solidProperties;
}
// * * * * * * * * * * * * * * * * * * * * * * * * * * * * * * * * * * * * * //

solidModel     linearGeometryTotalDisplacementML;

"linearGeometryTotalDisplacementMLCoeffs|unsLinearGeometryCoeffs"
{
    // Write  residual file
    residualFile yes;

    // Predict displacement
    machineLearning yes;

    // Write time for each iteration
    iterationTimeFile yes;

    // Predictions
    noPredictions 1;

	predictionResiduals
	(
		1
	);

    jsonFiles
    (
        "../../machine_learning/ML_model/fdeep_model_1.json"
    ) ;

	iterationToApplyMachineLearningPredictor ; 

    kerasScalingMeans
    (

    );

    kerasScalingStds
    (

    );


    // Maximum number of momentum correctors
    nCorrectors     10000;

    // Solution tolerance for displacement
    solutionTolerance 1e-10;

    // Alternative solution tolerance for displacement
    alternativeTolerance 1e-10;

    // Material law solution tolerance
    materialTolerance 1e-05;

    // Write frequency for the residuals
    infoFrequency   10;
}


// ************************************************************************* //
